15
-5.0902321294608856e+02 frame 33   xyz file generated by TeraChem
     O     0.1734921651   -2.2678604861   -0.2521232105
     O     2.3268910283   -0.7965978430   -0.0724524500
     O     2.2047333374    1.3507664956    0.1580028305
     N     1.6802581769    0.2594921608    0.0359301863
     C     0.2138904322    0.1713769729    0.0144860258
     C    -0.4403406185   -1.0815865013   -0.1284429420
     C    -0.5150681264    1.3706065042    0.1384664154
     C    -1.8539470029   -1.0788666154   -0.1408270535
     C    -1.9036248487    1.3450886146    0.1237570972
     C    -2.5681745238    0.1076716615   -0.0175202655
     H     0.0448477534    2.3053669454    0.2454312284
     H    -2.3555444612   -2.0477396059   -0.2516861947
     H    -2.4728057421    2.2768160561    0.2208086090
     H    -3.6655600489    0.0760544449   -0.0309193822
     H     1.1429124790   -2.1090688043   -0.2257308941
